Circuit: * C:\Users\karan\Desktop\Practical of FEE\Common emitter of BJT .asc

Warning: Multiple definitions of model "2scr375p" Type: BJT
Warning: Multiple definitions of model "bc857b" Type: BJT
Warning: Multiple definitions of model "bc847c" Type: BJT
Warning: Multiple definitions of model "bc847b" Type: BJT
Direct Newton iteration for .op point succeeded.
Heightened Def Con from 7.8125e-11 to 1.07812e-09

Date: Tue Feb 20 09:01:22 2024
Total elapsed time: 0.163 seconds.

tnom = 27
temp = 27
method = modified trap
totiter = 2200
traniter = 2193
tranpoints = 1048
accept = 1039
rejected = 10
matrix size = 8
fillins = 0
solver = Normal
Avg thread counts: 1.3/1.6/1.6/1.3
Matrix Compiler1: off  [0.1]/0.1/0.4
Matrix Compiler2: off  [0.1]/0.3/0.4

