Circuit: * C:\Users\karan\Desktop\fee practical\aim 1\reverse bias diode.asc


Date: Mon Feb 19 19:58:45 2024
Total elapsed time: 0.051 seconds.

tnom = 27
temp = 27
method = trap
totiter = 2009
traniter = 0
tranpoints = 0
accept = 0
rejected = 0
matrix size = 4
fillins = 0
solver = Normal
Avg thread counts: 1.3/0.0/1.7/1.3
Matrix Compiler1: off  [0.1]/0.1/0.1
Matrix Compiler2: off  [0.1]/0.1/0.1

